            TRNSYS - the TRaNsient SYstem Simulation program

   The Solar Energy Lab at the University of Wisconsin - Madison, USA
Le Centre Scientifique et Technique du Batiment, Sophia Antipolis, France
           Transsolar Energietechnik GmBH, Stuttgart, Germany
        Thermal Energy System Specialists, LLC, Madison Wisconsin, USA

                           Release 17.02.0005

Listing file for: "C:\DYESOPT\DYESOPT\DYNSIM&TECALCULATIONS\RESFUEL\HES3_1__TES0__EEG1_2__EES0\MODEL\HES3_1__TES0__EEG1_2__EES0.TRD"
 
*** Notice at time        :         0.000000
    Generated by Unit     : Not applicable or not available
    Generated by Type     : Not applicable or not available
    TRNSYS Message    197 : TRNSYS has been called within a TRNSED application.
    Reported information  : The TRNSYS Executable (TRNExe.exe) and main DLL (TRNDll.dll) are located in "C:\DYESOPT\DYESOPT\DYNSIM&TECALCULATIONS\RESFUEL\HES3_1__TES0__EEG1_2__EES0\MODEL"
 

 *** Pre-Processing the TRNSYS EQUATIONs and CONSTANTs to check for fatal errors.

 *** Pre-Processing of EQUATIONs and CONSTANTs completed with no fatal errors found.

 *** Evaluating the EQUATIONs and CONSTANTs to determine their initial values.

 *** Finished evaluating the EQUATIONs and CONSTANTs and ready to begin processing the remainder of the TRNSYS input file.

  VERSION        17
*TRNSED                                                                                                                                                                                                                                                                                                                                                                                                                                                                                                                                                                                                                                                                                                                                                                                                                                                                                                                                                                                                                                 
*******************************************************************************                                                                                                                                                                                                                                                                                                                                                                                                                                                                                                                                                                                                                                                                                                                                                                                                                                                                                                                                                         
*** TRNSYS input file (deck) generated by TrnsysStudio                                                                                                                                                                                                                                                                                                                                                                                                                                                                                                                                                                                                                                                                                                                                                                                                                                                                                                                                                                                  
*** on Friday, June 29, 2018 at 12:16                                                                                                                                                                                                                                                                                                                                                                                                                                                                                                                                                                                                                                                                                                                                                                                                                                                                                                                                                                                                   
*** from TrnsysStudio project: C:\Osama\TRNExecutable\TRNSED_App\CHP_RES_FUELmodel\HES3_1__TES0__EEG1_2__EES0.tpf                                                                                                                                                                                                                                                                                                                                                                                                                                                                                                                                                                                                                                                                                                                                                                                                                                                                                                                       
***                                                                                                                                                                                                                                                                                                                                                                                                                                                                                                                                                                                                                                                                                                                                                                                                                                                                                                                                                                                                                                     
*** If you edit this file, use the File/Import TRNSYS Input File function in                                                                                                                                                                                                                                                                                                                                                                                                                                                                                                                                                                                                                                                                                                                                                                                                                                                                                                                                                            
*** TrnsysStudio to update the project.                                                                                                                                                                                                                                                                                                                                                                                                                                                                                                                                                                                                                                                                                                                                                                                                                                                                                                                                                                                                 
***                                                                                                                                                                                                                                                                                                                                                                                                                                                                                                                                                                                                                                                                                                                                                                                                                                                                                                                                                                                                                                     
*** If you have problems, questions or suggestions please contact your local                                                                                                                                                                                                                                                                                                                                                                                                                                                                                                                                                                                                                                                                                                                                                                                                                                                                                                                                                            
*** TRNSYS distributor or mailto:software@cstb.fr                                                                                                                                                                                                                                                                                                                                                                                                                                                                                                                                                                                                                                                                                                                                                                                                                                                                                                                                                                                       
***                                                                                                                                                                                                                                                                                                                                                                                                                                                                                                                                                                                                                                                                                                                                                                                                                                                                                                                                                                                                                                     
*******************************************************************************                                                                                                                                                                                                                                                                                                                                                                                                                                                                                                                                                                                                                                                                                                                                                                                                                                                                                                                                                         
*                                                                                                                                                                                                                                                                                                                                                                                                                                                                                                                                                                                                                                                                                                                                                                                                                                                                                                                                                                                                                                       
*|<BACKGROUND> WHITE                                                                                                                                                                                                                                                                                                                                                                                                                                                                                                                                                                                                                                                                                                                                                                                                                                                                                                                                                                                                                    
*|<COLOR1> RED                                                                                                                                                                                                                                                                                                                                                                                                                                                                                                                                                                                                                                                                                                                                                                                                                                                                                                                                                                                                                          
*|<SIZE1> 14                                                                                                                                                                                                                                                                                                                                                                                                                                                                                                                                                                                                                                                                                                                                                                                                                                                                                                                                                                                                                            
*|<ALIGN1> CENTER                                                                                                                                                                                                                                                                                                                                                                                                                                                                                                                                                                                                                                                                                                                                                                                                                                                                                                                                                                                                                       
*|<STYLE1> ITALIC BOLD                                                                                                                                                                                                                                                                                                                                                                                                                                                                                                                                                                                                                                                                                                                                                                                                                                                                                                                                                                                                                  
*|[HEADER|                                                                                                                                                                                                                                                                                                                                                                                                                                                                                                                                                                                                                                                                                                                                                                                                                                                                                                                                                                                                                              
*|*TRNSYS 17                                                                                                                                                                                                                                                                                                                                                                                                                                                                                                                                                                                                                                                                                                                                                                                                                                                                                                                                                                                                                            
*|<STYLE1> BOLD                                                                                                                                                                                                                                                                                                                                                                                                                                                                                                                                                                                                                                                                                                                                                                                                                                                                                                                                                                                                                         
*|<COLOR1> NAVY                                                                                                                                                                                                                                                                                                                                                                                                                                                                                                                                                                                                                                                                                                                                                                                                                                                                                                                                                                                                                         
*|<SIZE1> 12                                                                                                                                                                                                                                                                                                                                                                                                                                                                                                                                                                                                                                                                                                                                                                                                                                                                                                                                                                                                                            
*|* TRNSYS input file: HES3_1__TES0__EEG1_2__EES0.TRD                                                                                                                                                                                                                                                                                                                                                                                                                                                                                                                                                                                                                                                                                                                                                                                                                                                                                                                                                                                   
*|* TrnsysStudio Project: C:\Osama\TRNExecutable\TRNSED_App\CHP_RES_FUELmodel\HES3_1__TES0__EEG1_2__EES0.tpf                                                                                                                                                                                                                                                                                                                                                                                                                                                                                                                                                                                                                                                                                                                                                                                                                                                                                                                            
*|*generated by TrnsysStudio, Friday, June 29, 2018 at 12:16                                                                                                                                                                                                                                                                                                                                                                                                                                                                                                                                                                                                                                                                                                                                                                                                                                                                                                                                                                            
*|*                                                                                                                                                                                                                                                                                                                                                                                                                                                                                                                                                                                                                                                                                                                                                                                                                                                                                                                                                                                                                                     
*|]                                                                                                                                                                                                                                                                                                                                                                                                                                                                                                                                                                                                                                                                                                                                                                                                                                                                                                                                                                                                                                     
*|<COLOR1> RED                                                                                                                                                                                                                                                                                                                                                                                                                                                                                                                                                                                                                                                                                                                                                                                                                                                                                                                                                                                                                          
*|<ALIGN1> LEFT                                                                                                                                                                                                                                                                                                                                                                                                                                                                                                                                                                                                                                                                                                                                                                                                                                                                                                                                                                                                                         
*                                                                                                                                                                                                                                                                                                                                                                                                                                                                                                                                                                                                                                                                                                                                                                                                                                                                                                                                                                                                                                       
*******************************************************************************                                                                                                                                                                                                                                                                                                                                                                                                                                                                                                                                                                                                                                                                                                                                                                                                                                                                                                                                                         
*** Units                                                                                                                                                                                                                                                                                                                                                                                                                                                                                                                                                                                                                                                                                                                                                                                                                                                                                                                                                                                                                               
*******************************************************************************                                                                                                                                                                                                                                                                                                                                                                                                                                                                                                                                                                                                                                                                                                                                                                                                                                                                                                                                                         
*                                                                                                                                                                                                                                                                                                                                                                                                                                                                                                                                                                                                                                                                                                                                                                                                                                                                                                                                                                                                                                       
*******************************************************************************                                                                                                                                                                                                                                                                                                                                                                                                                                                                                                                                                                                                                                                                                                                                                                                                                                                                                                                                                         
*** Control cards                                                                                                                                                                                                                                                                                                                                                                                                                                                                                                                                                                                                                                                                                                                                                                                                                                                                                                                                                                                                                       
*******************************************************************************                                                                                                                                                                                                                                                                                                                                                                                                                                                                                                                                                                                                                                                                                                                                                                                                                                                                                                                                                         
* START, STOP and STEP                                                                                                                                                                                                                                                                                                                                                                                                                                                                                                                                                                                                                                                                                                                                                                                                                                                                                                                                                                                                                  
*|[SIMPAR|Simulation Parameters                                                                                                                                                                                                                                                                                                                                                                                                                                                                                                                                                                                                                                                                                                                                                                                                                                                                                                                                                                                                         

  EQUATIONS   5
     I_MONTH= 0
*|<Month of the simulation                    |Month1.dat|1|2|2                                                                                                                                                                                                                                                                                                                                                                                                                                                                                                                                                                                                                                                                                                                                                                                                                                                                                                                                                                         
     I_DAY= 1.0000000000000E+00
*|Day of Month for Simulation Start           |||0|1|1|31|3                                                                                                                                                                                                                                                                                                                                                                                                                                                                                                                                                                                                                                                                                                                                                                                                                                                                                                                                                                             
     I_LENGTH= 7
*|<Length of Simulation                       |Length.dat|2|1|4                                                                                                                                                                                                                                                                                                                                                                                                                                                                                                                                                                                                                                                                                                                                                                                                                                                                                                                                                                         
     START=I_MONTH+24*(I_DAY-1)
     STOP=START+I_LENGTH*24

  EQUATIONS   1
     STEP= 1.2500000000000E-01
*|Timestep |hours|hours|0|1|0.0000277777778|10000.00000|1000                                                                                                                                                                                                                                                                                                                                                                                                                                                                                                                                                                                                                                                                                                                                                                                                                                                                                                                                                                            
*|]                                                                                                                                                                                                                                                                                                                                                                                                                                                                                                                                                                                                                                                                                                                                                                                                                                                                                                                                                                                                                                     
! Start time	End time	Time step                                                                                                                                                                                                                                                                                                                                                                                                                                                                                                                                                                                                                                                                                                                                                                                                                                                                                                                                                                          

  SIMULATION         0.0000000000000000E+00    1.6800000000000000E+02    1.2500000186264515E-01
! Integration	 Convergence                                                                                                                                                                                                                                                                                                                                                                                                                                                                                                                                                                                                                                                                                                                                                                                                                                                                                                                                                                                     

  TOLERANCES         1.0000000000000002E-03    1.0000000000000002E-03
! Max iterations	Max warnings	Trace limit                                                                                                                                                                                                                                                                                                                                                                                                                                                                                                                                                                                                                                                                                                                                                                                                                                                                                                                                                                           

  LIMITS        30       500        51
! TRNSYS numerical integration solver method                                                                                                                                                                                                                                                                                                                                                                                                                                                                                                                                                                                                                                                                                                                                                                                                                                                                                                                                                                                  

  DFQ   1
! TRNSYS output file width, number of characters                                                                                                                                                                                                                                                                                                                                                                                                                                                                                                                                                                                                                                                                                                                                                                                                                                                                                                                                                                            

  WIDTH    80
! NOLIST statement                                                                                                                                                                                                                                                                                                                                                                                                                                                                                                                                                                                                                                                                                                                                                                                                                                                                                                                                                                                                            

  LIST
! MAP statement                                                                                                                                                                                                                                                                                                                                                                                                                                                                                                                                                                                                                                                                                                                                                                                                                                                                                                                                                                                                                    
! Solver statement	Minimum relaxation factor	Maximum relaxation factor                                                                                                                                                                                                                                                                                                                                                                                                                                                                                                                                                                                                                                                                                                                                                                                                                                                                                                                                                  

  SOLVER  0
    1.000000000000000    
    1.000000000000000    
! Nan DEBUG statement                                                                                                                                                                                                                                                                                                                                                                                                                                                                                                                                                                                                                                                                                                                                                                                                                                                                                                                                                                                                    

  NAN_CHECK   0
! Overwrite DEBUG statement                                                                                                                                                                                                                                                                                                                                                                                                                                                                                                                                                                                                                                                                                                                                                                                                                                                                                                                                                                                         

  OVERWRITE_CHECK   0
! disable time report                                                                                                                                                                                                                                                                                                                                                                                                                                                                                                                                                                                                                                                                                                                                                                                                                                                                                                                                                                                                   

  TIME_REPORT   0
! EQUATION SOLVER statement                                                                                                                                                                                                                                                                                                                                                                                                                                                                                                                                                                                                                                                                                                                                                                                                                                                                                                                                                                                               

  EQUATION SOLVING METHOD         0
* User defined CONSTANTS                                                                                                                                                                                                                                                                                                                                                                                                                                                                                                                                                                                                                                                                                                                                                                                                                                                                                                                                                                                                                
include caseData.txt

  CONSTANTS  84
     dtSim        =               0.13000000
     pltMode      =               0.00000000
     hrSim        =            8760.00000000
     HPT1_Pi_dsgn =             140.00000000
     HPT1_Po_dsgn =              30.30499816
     HPT1_FR_dsgn =          136720.30532873
     HPT1_ETA_dsgn =               0.84494971
     HPT1_bypass  =               1.00000000
     HPT1_Po      =              30.30499816
     HPT1_FR      =          136720.30532873
     HPT1_h       =            3433.40983243
     HPT2_Pi_dsgn =              30.30499816
     HPT2_Po_dsgn =               8.54504389
     HPT2_FR_dsgn =          124109.19866327
     HPT2_ETA_dsgn =               0.86618888
     HPT2_bypass  =               1.00000000
     HPT2_Po      =               8.54504389
     HPT2_FR      =          124109.19866327
     HPT2_h       =            3060.15742977
     LPT1_Pi_dsgn =               8.54504389
     LPT1_Po_dsgn =               3.19083043
     LPT1_FR_dsgn =          110240.83399284
     LPT1_ETA_dsgn =               0.88213162
     LPT1_bypass  =               1.00000000
     LPT1_Po      =               3.19083043
     LPT1_FR      =          110240.83399284
     LPT1_h       =            2813.47016562
     LPT2_Pi_dsgn =               3.19083043
     LPT2_Po_dsgn =               0.55635550
     LPT2_FR_dsgn =          100584.97889211
     LPT2_ETA_dsgn =               0.90363693
     LPT2_bypass  =               1.00000000
     LPT2_Po      =               0.55635550
     LPT2_FR      =          100584.97889211
     LPT2_h       =            2650.64281638
     LPT3_Pi_dsgn =               0.55635550
     LPT3_Po_dsgn =               0.24266110
     LPT3_FR_dsgn =           42957.19509924
     LPT3_ETA_dsgn =               0.91237822
     LPT3_bypass  =               1.00000000
     LPT3_Po      =               0.24266110
     LPT3_FR      =           42957.19509924
     LPT3_h       =            2468.19534020
     Boiler_Q     =           94086.97562781
     Boiler_h_out =            3433.40983243
     Boiler_Fuel  =           12107.00000000
     PUMP_befmix_mode =               2.00000000
     PUMP_befmix_Pin =               0.24266110
     PUMP_befmix_ro =            1000.00000000
     PUMP_befmix_ETA =               0.85000000
     PUMP_befmix_W =            1530.20274689
     PUMP_dealp_mode =               2.00000000
     PUMP_dealp_Pin =               0.53966483
     PUMP_dealp_ro =            1000.00000000
     PUMP_dealp_ETA =               0.85000000
     PUMP_dealp_W =          141473.95250969
     PUMP2_mode   =               2.00000000
     PUMP2_Pin    =               8.11779170
     PUMP2_ro     =            1000.00000000
     PUMP2_ETA    =               0.85000000
     PUMP2_W      =         2797075.98663708
     HE1_UA       =          167132.66973966
     HE1_Cp_hot   =               4.32824491
     HE1_CP_cold  =               4.69524697
     HE1_FRref_cold =          136720.30532873
     HE3_UA       =          141189.50836145
     HE3_Cp_hot   =               4.19637572
     HE3_CP_cold  =               4.27080273
     HE3_FRref_cold =          110240.83399284
     PH1_Cp_cold  =               4.34410157
     PH1_UA       =          905483.77409259
     PH1_FRref_cold =          136720.30532873
     PH1_onoff    =               1.00000000
     PH3_Cp_cold  =               4.20060459
     PH3_UA       =         1105068.67790400
     PH3_FRref_cold =          110240.83399284
     PH3_onoff    =               1.00000000
     UA_COND2     =         9841613.96156871
     DH_massflow  =             400.15000000
     DH_T_out_COND1 =              62.29883562
     DH_T_in_COND1 =              46.17970113
     DH_T_out_COND2 =              82.00000000
     DH_T_in_COND2 =              62.29883562
     DH_T_supply  =              82.00000000
*                                                                                                                                                                                                                                                                                                                                                                                                                                                                                                                                                                                                                                                                                                                                                                                                                                                                                                                                                                                                                                       
* Model "Stage_LPT-3" (Type 318)                                                                                                                                                                                                                                                                                                                                                                                                                                                                                                                                                                                                                                                                                                                                                                                                                                                                                                                                                                                                        
*                                                                                                                                                                                                                                                                                                                                                                                                                                                                                                                                                                                                                                                                                                                                                                                                                                                                                                                                                                                                                                       
*                                                                                                                                                                                                                                                                                                                                                                                                                                                                                                                                                                                                                                                                                                                                                                                                                                                                                                                                                                                                                                       
*                                                                                                                                                                                                                                                                                                                                                                                                                                                                                                                                                                                                                                                                                                                                                                                                                                                                                                                                                                                                                                       

  UNIT    2     TYPE  318                                                   
*$UNIT_NAME Stage_LPT-3                                                                                                                                                                                                                                                                                                                                                                                                                                                                                                                                                                                                                                                                                                                                                                                                                                                                                                                                                                                                                 
*$MODEL .\STEC Library\Rankine\Turbine\Stage.tmf                                                                                                                                                                                                                                                                                                                                                                                                                                                                                                                                                                                                                                                                                                                                                                                                                                                                                                                                                                                        
*$POSITION 1764 255                                                                                                                                                                                                                                                                                                                                                                                                                                                                                                                                                                                                                                                                                                                                                                                                                                                                                                                                                                                                                     
*$LAYER Main #                                                                                                                                                                                                                                                                                                                                                                                                                                                                                                                                                                                                                                                                                                                                                                                                                                                                                                                                                                                                                          
       PARAMETERS   8
! 1 design inlet pressure                                                                                                                                                                                                                                                                                                                                                                                                                                                                                                                                                                                                                                                                                                                                                                                                                                                                                                                                                                                                 
! 2 design outlet pressure                                                                                                                                                                                                                                                                                                                                                                                                                                                                                                                                                                                                                                                                                                                                                                                                                                                                                                                                                                                                
! 3 design flow rate                                                                                                                                                                                                                                                                                                                                                                                                                                                                                                                                                                                                                                                                                                                                                                                                                                                                                                                                                                                                      
! 4 design inner efficiency                                                                                                                                                                                                                                                                                                                                                                                                                                                                                                                                                                                                                                                                                                                                                                                                                                                                                                                                                                                              
! 5 generator efficiency                                                                                                                                                                                                                                                                                                                                                                                                                                                                                                                                                                                                                                                                                                                                                                                                                                                                                                                                                                                                          
! 6 coef. for inner eff eq                                                                                                                                                                                                                                                                                                                                                                                                                                                                                                                                                                                                                                                                                                                                                                                                                                                                                                                                                                                                         
[...]
! 3 No. of values to read                                                                                                                                                                                                                                                                                                                                                                                                                                                                                                                                                                                                                                                                                                                                                                                                                                                                                                                                                                                                    
! 4 Time interval of data                                                                                                                                                                                                                                                                                                                                                                                                                                                                                                                                                                                                                                                                                                                                                                                                                                                                                                                                                                                                    
! 5 Interpolate or not                                                                                                                                                                                                                                                                                                                                                                                                                                                                                                                                                                                                                                                                                                                                                                                                                                                                                                                                                                                                       
! 6 Multiplication factor                                                                                                                                                                                                                                                                                                                                                                                                                                                                                                                                                                                                                                                                                                                                                                                                                                                                                                                                                                                                    
! 7 Addition factor                                                                                                                                                                                                                                                                                                                                                                                                                                                                                                                                                                                                                                                                                                                                                                                                                                                                                                                                                                                                          
! 8 Average or instantaneous value                                                                                                                                                                                                                                                                                                                                                                                                                                                                                                                                                                                                                                                                                                                                                                                                                                                                                                                                                                                           
! 9 Logical unit for input file                                                                                                                                                                                                                                                                                                                                                                                                                                                                                                                                                                                                                                                                                                                                                                                                                                                                                                                                                                                               
! 10 Free format mode                                                                                                                                                                                                                                                                                                                                                                                                                                                                                                                                                                                                                                                                                                                                                                                                                                                                                                                                                                                                               
       3.0000000000000000E+00    0.0000000000000000E+00    1.0000000000000000E+00    5.0000000745058060E-01    1.0000000000000000E+00
       1.0000000000000000E+00    0.0000000000000000E+00    1.0000000000000000E+00    8.4000000000000000E+01   -1.0000000000000000E+00
*** External files                                                                                                                                                                                                                                                                                                                                                                                                                                                                                                                                                                                                                                                                                                                                                                                                                                                                                                                                                                                                                      
  ASSIGN Q_th_excel.txt   84
*|? Input file name |1000                                                                                                                                                                                                                                                                                                                                                                                                                                                                                                                                                                                                                                                                                                                                                                                                                                                                                                                                                                                                               
*------------------------------------------------------------------------------                                                                                                                                                                                                                                                                                                                                                                                                                                                                                                                                                                                                                                                                                                                                                                                                                                                                                                                                                         
*                                                                                                                                                                                                                                                                                                                                                                                                                                                                                                                                                                                                                                                                                                                                                                                                                                                                                                                                                                                                                                       

  END


         TRANSIENT SIMULATION     STARTING AT TIME =  0.0000000000000000E+00
                                  STOPPING AT TIME =  1.6800000000000000E+02
                                          TIMESTEP =         1 /        8
             DIFFERENTIAL EQUATION ERROR TOLERANCE =  1.0000000000000002E-03
                   ALGEBRAIC CONVERGENCE TOLERANCE =  1.0000000000000002E-03

     DIFFERENTIAL EQUATIONS SOLVED BY MODIFIED EULER   
 
*** Notice at time        :         0.000000
    Generated by Unit     : Not applicable or not available
    Generated by Type     : Not applicable or not available
    TRNSYS Message     90 : TRNDll.dll is compiled in release mode. External DLLs will be loaded from the .\UserLib\ReleaseDLLs\ directory.
    Reported information  : Not available
 
 
*** Notice at time        :         0.000000
    Generated by Unit     : Not applicable or not available
    Generated by Type     : Not applicable or not available
    Message               : The following Types were loaded from TRNDll.dll: Type9, Type65, Type23, Type25
 
 
*** Notice at time        :         0.000000
    Generated by Unit     : Not applicable or not available
    Generated by Type     : Not applicable or not available
    Message               : The following Types were loaded from "STECdll.dll": Type318, Type391, Type389, Type384, Type390, Type317, Type320
 
 
*** Notice at time        :         0.000000
    Generated by Unit     : Not applicable or not available
    Generated by Type     : Not applicable or not available
    TRNSYS Message    199 : TRNSYS found at least one user DLL in the UserLib directory. (Note: Only DLL's including Types that are used in the simulation are loaded)
    Reported information  : 1 user DLL was loaded after searching in "C:\DYESOPT\DYESOPT\DYNSIM&TECALCULATIONS\RESFUEL\HES3_1__TES0__EEG1_2__EES0\MODEL\UserLib\ReleaseDLLs"
 
 
*** Warning at time       :         0.000000
    Generated by Unit     :    50
    Generated by Type     :    25
    Message               : The printer has rounded the reset time to an even number of timesteps - Please check to make sure that this does not adversely affect your simulation results.
 
 
*** Warning at time       :         0.000000
    Generated by Unit     :    40
    Generated by Type     :    23
    TRNSYS Message    315 : The TRNSYS processor has reported a potential problem with the connections in your input file. In version 16, there is a very specific calling order after convergence has been reached at each timestep. One of your connections flows against this calling order - for example you may have the output of an integrator connected as an input to a standard component (one that is being called iteratively at each timestep). While this is not technically an ERROR - it may cause incorrect values to be passed to the component. For example, the input to an iterating component from an integrator will be from the previously converged timestep and not the current timestep. Refer to the TRNSYS Manual - Volume 1 - for more information on the calling order for TRNSYS components
    Reported information  : ** Reported by Exec.f90
 

*** The TRNSYS components will be called in the following order:
      Unit #    3   Type #    9
      Unit #    4   Type #    9
      Unit #    5   Type #    9
      Unit #   51   Type #    9
      Unit #    2   Type #  318
      Unit #    8   Type #  391
      Unit #   12   Type #  389
      Unit #   13   Type #  384
      Unit #   14   Type #  390
      Unit #   17   Type #  318
      Unit #   18   Type #  389
      Unit #   19   Type #  317
      Unit #   20   Type #  320
      Unit #   21   Type #  390
      Unit #   22   Type #  384
      Unit #   23   Type #  390
      Unit #   24   Type #  389
      Unit #   25   Type #  318
      Unit #   26   Type #  318
      Unit #   28   Type #  389
      Unit #   30   Type #  317
      Unit #   31   Type #  320
      Unit #   36   Type #  318
      Unit #   37   Type #  391
      Unit #   41   Type #  389
      Unit #   43   Type #  391
      Unit #    6   Type #   65
      Unit #   10   Type #   65
      Unit #   11   Type #   65
      Unit #   15   Type #   65
      Unit #   16   Type #   65
      Unit #   35   Type #   65
      Unit #   38   Type #   65
      Unit #   42   Type #   65
      Unit #   45   Type #   65
      Unit #   49   Type #   65
      Unit #   50   Type #   25
      Unit #   40   Type #   23
 
*** Notice at time        :       168.000000
    Generated by Unit     :    40
    Generated by Type     :    23
    Message               : The controller was stuck during           0 time steps, i.e.      .000000000000000     % of the time (Note that you have set NStick < 1. In that case the controller is stuck when further oscillations would trigger the 'maximum number of iterations' warning. Use a large number if you do not want this behavior).
 


*********************************************************************************************************
The Following UNIT Numbers, TYPE Numbers, and Logical Units Were Used in the Supplied TRNSYS Input File: 
                         2             9                 4
                         3            23                 6
                         4            25                 9
                         5            65                56
                         6           317                57
                         8           318                58
                        10           320                59
                        11           384                60
                        12           389                61
                        13           390                62
                        14           391                63
                        15                              64
                        16                              65
                        17                              66
                        18                              67
                        19                              82
                        20                              83
                        21                              84
                        22
                        23
                        24
                        25
                        26
                        28
                        30
                        31
                        35
                        36
                        37
                        38
                        40
                        41
                        42
                        43
                        45
                        49
                        50
                        51


*********************************************************************************************************
Total TRNSYS Calculation Time:                          3.8800 Seconds
